                  2020 ACM/IEEE 47th Annual International Symposium on Computer Architecture (ISCA)




        Accel-Sim: An Extensible Simulation Framework
                 for Validated GPU Modeling
            Mahmoud Khairy                   Zhesheng Shen                          Tor M. Aamodt                        Timothy G. Rogers
            Purdue University               Purdue University               University of British Columbia                Purdue University
           abdallm@purdue.edu              shen203@purdue.edu                    aamodt@ece.ubc.ca                      timrogers@purdue.edu



      Abstract—In computer architecture, signiﬁcant innovation fre-               which provides hardware vendors with tremendous ﬂexibility
   quently comes from industry. However, the simulation tools used                to make machine ISA (mISA) changes while still maintaining
   by industry are often not released for open use, and even when                 binary compatibility. Vendors like NVIDIA keep the operation
   they are, the exact details of industrial designs are not disclosed.
   As a result, research in the architecture space must ensure that               of these ISAs private, while others like AMD document each
   assumptions about contemporary processor design remain true.                   new machine ISA, but freely make drastic changes which
      To help bridge the gap between opaque industrial innovation                 open-source simulators must then implement.
   and public research, we introduce three mechanisms that make                      This situation presents three separate, but related challenges:
   it much easier for GPU simulators to keep up with industry.                    (1) How do academic researchers quickly simulate a new, often
   First, we introduce a new GPU simulator frontend that minimizes
   the effort required to simulate different machine ISAs through                 undocumented ISA every year and a half? (2) Once func-
   trace-driven simulation of NVIDIA’s native machine ISA, while                  tionally correct, how are changes to the architecture detected
   still supporting execution-driven simulation of the virtual ISA.               and modeled? (3) What is a sustainable, rigorous validation
   Second, we extensively update GPGPU-Sim’s performance model                    mechanism to ensure that new baselines are still tracking
   to increase its level of detail, conﬁgurability and accuracy. Finally,         industrial designs? We present a new simulation framework,
   surrounding the new frontend and ﬂexible performance model is
   an infrastructure that enables quick, detailed validation. A com-              Accel-Sim, that is designed to address all three challenges.
   prehensive set of microbenchmarks and automated correlation                       Accel-Sim introduces a ﬂexible frontend, that enables it to
   plotting ease the modeling process.                                            operate in either trace- or execution-driven mode. Accel-Sim
      We use these three new mechanisms to build Accel-Sim, a                     includes a trace-generation tool (built using the NVBit [70]
   detailed simulation framework that decreases cycle error 79
                                                                                  binary instrumentation tool), that produces machine ISA in-
   percentage points, over a wide range of 80 workloads, consisting
   of 1,945 kernel instances. We further demonstrate that Accel-Sim               struction traces from any CUDA binary, including those that
   is able to simulate benchmark suites that no other open-source                 use closed-source libraries, like cuDNN [43]. These machine
   simulator can. In particular, we use Accel-sim to simulate an                  ISA traces are then converted into an ISA-independent in-
   additional 60 workloads, comprised of 11,440 kernel instances,                 termediate representation that is input to the performance
   from the machine learning benchmark suite Deepbench. Deep-
                                                                                  model. The trace-driven frontend allows Accel-Sim to simulate
   bench makes use of closed-source, hand-tuned kernels with no
   virtual ISA implementation. Using a rigorous counter-by-counter                the machine ISA in new cards without implementing the
   analysis, we validate Accel-Sim against contemporary GPUs.                     ISA’s functional model and increases the accuracy of the
      Finally, to highlight the effects of falling behind industry, this          simulator over executing the virtual ISA. However, trace-based
   paper presents two case-studies that demonstrate how incorrect                 simulation has its drawbacks. Evaluating new designs that
   baseline assumptions can hide new areas of opportunity and lead
   to potentially incorrect design decisions.
                                                                                  rely on the data values stored in registers or memory [72]
      Index Terms—GPGPU, Modeling and Simulation                                  and global synchronization mechanisms [63] are either not
                                                                                  possible or very difﬁcult to study without emulation-based
                         I. I NTRODUCTION                                         execution-driven simulation. Since Accel-Sim is based on an
      Research cannot look ahead, if its baseline assumptions                     ISA-independent performance model, it is also capable of
   are too far behind. To keep up with industry, state-of-the-                    running emulation-based execution-driven simulations using
   art academic and public research must both be aware of and                     NVIDIA’s relatively stable, well documented virtual ISA,
   adapt to changes in contemporary designs. In the computer                      PTX. Accel-Sim is the ﬁrst academic simulation framework
   architecture space, keeping up with proprietary industrial ma-                 to support contemporary CUDA applications, modern Source
   chines is a challenge. This is a problem in all segments of                    and ASSembly (SASS) machine ISAs and simulate hand-tuned
   the processor industry, but perhaps a more acute challenge in                  assembly in closed-source GPU binaries.
   the programmable accelerator space, where the rapid scaling                       Table I presents a survey of the open-source GPU simulation
   of parallelism, introduction of new processing pipelines (i.e.                 space. Over the last decade, several GPU simulators have been
   Tensor Cores [10]) and undocumented changes to both the                        developed, each serving a different purpose. MacSim [28] is
   microarchitecture and Instruction Set Architecture (ISA) are                   an early GPU simulator that performs trace-based simulation
   commonplace in each new product generation. GPU architec-                      of NVIDIA’s virtual ISA and includes a Fermi-like microar-
   tures have widely embraced the use of a virtual ISA (vISA),                    chitecture model. Recent work on MacSim has extended the


978-1-7281-4661-4/20/$31.00 ©2020 IEEE                                      473
DOI 10.1109/ISCA45697.2020.00047

         Authorized licensed use limited to: Purdue University. Downloaded on December 01,2021 at 17:51:44 UTC from IEEE Xplore. Restrictions apply.
 TABLE I: Landscape of open-source GPU simulation. Accuracy numbers are taken from each simulator’s respective publication.
                                           GPGPU-         Gem5-          MGPU-           MacSim          Multi2-
                                                                                                                                Accel-Sim
                                          Sim 3.x [5]   APU [6], [18]    Sim [67]        [14], [28]   Sim [15], [69]
                                                                                                         vISA +
                                            vISA +       vISA +          vISA +           vISA +                                vISA +
                        ISA                                                                           mISA Kepler +
                                          mISA GT200    AMD mISA        AMD mISA        Intel mISA                     NVBit-generated [70] mISA
                                                                                                       mISA AMD
                     Front-end             Execution      Execution     Execution         Trace         Execution      Trace- and Execution-driven
               Validated perf. model         Fermi          AMD           AMD             Fermi          Kepler        Kepler, Pascal, Volta, Turing
               Validated Workloads            14             10             7              N/A             24                       80
            Reported Accuracy (error %)     35% [1]       42% [18]      5.5% [67]          N/A          19% [15]                   15%
                                                                                                                        12.5 (Trace-driven mode)
               Simulation rate (KIPS)         3             N/A          28 [67]           N/A           0.8 [67]
                                                                                                                          6 (Exec-driven mode)
             Multi-threaded simulation                                                                                         
            Hand-tuned NVIDIA libraries
                                                                                                                               
                (i.e. Volta cuDNN)

simulator to execute traces for Intel GPUs [14]. Multi2-Sim is                  racy by validating it against four generations of NVIDIA
a versatile GPU simulator that has emulation-based functional                   GPUs ranging from Kepler to Turing, performing an extensive
simulation for both the virtual ISA and a subset of older                       side-by-side comparison of Accel-Sim and GPGPU-Sim 3.x
machine ISAs from both AMD and NVIDIA. GPGPU-Sim [5]                            modeling a Volta V100 [46].
is a CUDA-centric simulator capable of functionally executing                      During the course of this analysis we uncover a number of
NVIDIA’s virtual ISA and a subset of an older machine ISA.                      interesting insights into how contemporary hardware works.
More recently, Gem5 has been augmented to support an APU                        We utilized every publicly available resource to construct the
performance model for AMD’s virtual and machine ISAs [6].                       performance model, capturing the details of what others have
MGPU-Sim [67] is a parallel GPU simulator for AMD’s                             either disclosed or discovered [26], [34], [37], [73]. In the
virtual and machine ISAs. One of the primary drawbacks with                     process of correlating the memory system we discover and
all the simulators that support execution-driven machine ISAs                   model several undocumented features, such as: details of the
is the challenge of keeping up with changes to the mISAs                        streaming, adaptive L1 data cache, sectoring of both the L1
functional model. As a result, only a limited subset of the                     and L2, a sub-warp, sector-centric memory coalescing policy,
instruction set (and hence applications) are ever fully sup-                    and an L2 write policy that conserves memory bandwidth in
ported. This is especially important for supporting optimized                   the presence of sub-sector reads.
libraries that often use exotic, hand-tuned machine code to                        Finally, this paper performs two case-studies to highlight
improve performance, such as NVIDIA’s cuDNN. Although                           new research opportunities on contemporary GPUs and to
recent work has augmented GPGPU-Sim [31] to enable virtual                      demonstrate pitfalls that are alleviated by having a simu-
ISA execution of these libraries, the functionality only works                  lation infrastructure that is easier to validate. In particular,
in pre-Volta GPUs. For Volta and Turing, cuDNN executes                         we demonstrate that out-of-order memory access scheduling,
hand-tuned SASS kernels for which there is no virtual ISA                       which appears relatively ineffective using an older model,
implementation. Accel-Sim’s support for machine ISA traces                      yields a signiﬁcant performance improvement when the level
bypasses all of these issues. In addition, existing GPU simu-                   of detail in the memory system is increased to more closely
lation frameworks lack a systematic methodology to validate                     match hardware. We also demonstrate that the L1 cache
and model new architectural designs quickly.                                    throughput bottleneck present in GPUs no longer exists in
   Shifting the focus from implementing an undocumented                         contemporary hardware, decreasing the effectiveness of tech-
functional model enables Accel-Sim to focus on the perfor-                      niques that selectively bypass the L1 for throughput reasons.
mance model. We extensively modify GPGPU-Sim’s perfor-                             This paper makes the following contributions:
mance model (which we release as part of GPGPU-Sim 4.0)
to increase its level of detail, conﬁgurability and accuracy. To                    • It introduces Accel-Sim, a simulation framework explic-
facilitate rigorous validation, the performance model outputs                         itly designed to make modeling and validating future
a set of counters that have 1:1 equivalents with hardware                             GPUs easier. By utilizing a ﬂexible frontend, capable of
data emitted by NVIDIA proﬁlers, in addition to the de-                               switching between execution-driven vISA simulation and
tailed statistics that can only be provided by simulation.                            trace-driven mISA simulation, we are able to simulate
These counter values are then fed into an automated tuning                            hand-tuned machine code from NVIDIA binaries without
framework that generates correlation plots and modiﬁes the                            giving up the option to perform execution-driven sim-
simulator’s conﬁguration ﬁles, making it easier to create a                           ulation when appropriate. We demonstrate Accel-Sim’s
validated performance model for a new GPU.                                            ﬂexibility by modeling GPUs from Kepler to Turing.
                                                                                    • It performs a rigorous, counter-by-counter comparison
   Using our new frontend and validation infrastructure, we
                                                                                      of our new performance model against state-of-the-art
perform an extensive modeling effort that builds on GPGPU-
                                                                                      simulation when modeling an NVIDIA Volta card, reduc-
Sim’s [5] performance model to create a more ﬂexible, ex-
                                                                                      ing error by 79 percentage points. Through this analysis,
tensible GPU simulator. Through careful counter-by-counter
                                                                                      we uncover and model several previously undocumented
validation, we expose several changes to contemporary GPU
                                                                                      architectural features in contemporary GPUs.
hardware. We demonstrate Accel-Sim’s ﬂexibility and accu-



                                                                         474


      Authorized licensed use limited to: Purdue University. Downloaded on December 01,2021 at 17:51:44 UTC from IEEE Xplore. Restrictions apply.
                                                                                                           
                                      '                                                                                                                                                                                                Instruction Cache
                                                                                                                                                                                    Thread Block Scheduler
                                                              '*&)
                                                                                  
                                                                                                                                        Accel-Sim-Trace [Correl=0.922 MAE=35.2%]
                                                                                                                                       100M
                                                                                                                                          9
                                                                                                                                                                                                                                       Sub-core             Sub-core     Sub-core
                                                                                                          Simulation QV100 SM Cycles
                                                                                                                                          8
                                                                                                                                          7
                                                                                                                                          6
                                                                                                                                          5
                                                                                                                                          4




                                      ' '
                                                                                                                                          3




                                                                                                                                                                                                                                        Warp                 Warp
                                                                                                                                          2




      (“FADD”, FPU)                                                                                                                10M
                                                                                                                                          9




                                                                                                                                                                                           Streaming    Streaming     Streaming                      …..                  Warp


                                                         ' & "
                                                                                                                                          8
                                                                                                                                          7
                                                                                                                                          6
                                                                                                                                          5
                                                                                                                                          4




                                         $
                                                                                                                                          3




      (“IADD”, INT)                                                                                                                                                                                                                   Scheduler
                                                                                                                                          2


                                                                                                                                        1M
                                                                                                                                          9




                                                                                                                                                                                             Multi-       Multi-        Multi-                             Scheduler    Scheduler
                                                                          # 
                                                                                                                                          8
                                                                                                                                          7




                                                                                                                                                                                                                  …..
                                                                                                                                          6




      ……
                                                                                                                                              1M   2   5   10M   2    5   100M




                                          "
                                                                                                                                              Hardware QV100 SM Cycles




           (&                                                      '                                                                                                        processor    processor     processor
                                                                                                       '                                                                                                                      Register
                                                                                                                                                                                                                                         i                 Register
                                                                                                                                                                                                                                                              i          Register
                                                                                                                                                                                                                                                                            i
                                          '                             
                                                                                                                                                                                                                                        File                 File
      #define WARP_SIZE 32
      #define SM_NUM 80                 #"                                           "                                                                                                                                                            File
      ………                                                                                                                                                                                   Interconnection Network              Exec Units           Exec Units   Exec Units
                                                                                                                                                                                                                                         EU1
                                                                                                                                                                                                                                           .                  EU1
                                                                                                                                                                                                                                                                .          EU1
                                                                                                                                                                                                                                                                             .
                                                                                                                                                                                                                                           .                    .            .
                '                                                                                                                                                            Memory      Memory            Memory        EU2                  EU2          EU2
                                                                                                                                                                                                                               .                    .            .
                  #                                                      !                                                                                                           Partition   Partition         Partition       .                    .             .
                                                                                                                                                                                                                    …..                   .                    .             .
                                                                                                                                                                                            L2 Cache    L2 Cache          L2 Cache
          '# !#"
  %                                                                                                                                                                                                                                                     Crossbar
                                                                                                                                                                                             HBM         HBM               HBM
                  Fig. 1: Accel-Sim’s end-to-end ﬂow.                                                                                                                                       /GDDR       /GDDR
                                                                                                                                                                                                                    …..
                                                                                                                                                                                                                          /GDDR
                                                                                                                                                                                            Channel     Channel                               L1D Cache / Shared        Constant
                                                                                                                                                                                                                          Channel
                                                                                                                                                                                                                                                   Memory                Cache


  • It introduces a comprehensive set of validation infras-                                                                                                                                 Fig. 2: Updated GPGPU-Sim 4.0 performance model.
    tructure that includes: a set of targeted GPU microbench-
    marks, an automated parameter tuner and an automatic
                                                                                                                                                                                         ISA is released, users provide the frontend with an ISA Def
    correlation visualizer, useful for adapting Accel-Sim to
                                                                                                                                                                                         ﬁle that speciﬁes where each instruction should be executed.
    model new designs quickly.
                                                                                                                                                                                         This is a relatively simple mapping that can be derived from
  • It performs a set of case-studies to concretely demonstrate
                                                                                                                                                                                         publicly available information on NVIDIA’s machine ISA [42].
    the effects of falling behind industry and uses Accel-Sim
                                                                                                                                                                                            By not emulating hundreds of scalar threads each cycle,
    to suggest future areas of new research for GPUs.
                                                                                                                                                                                         Accel-Sim’s trace-driven mode improves simulation speed
           II. ACCEL -S IM SIMULATION FRAMEWORK                                                                                                                                          versus execution-driven mode. Prior work [18], [22] demon-
                                                                                                                                                                                         strates that executing GPU vISAs may not be an accurate
   Figure 1 depicts an overview of our new simulation frame-                                                                                                                             representation of some workloads. The mISA representation
work. Accel-Sim is composed of: (1) a ﬂexible frontend                                                                                                                                   of the program includes register allocation and other compiler
that supports execution-driven simulation of NVIDIA’s virtual                                                                                                                            optimizations, whereas the vISA assumes an inﬁnite register
ISA and trace-driven simulation of contemporary machine                                                                                                                                  space and has naive instruction scheduling. Further, supporting
ISAs, (2) a ﬂexible and detailed performance model, (3) a                                                                                                                                SASS gives researchers the ability to simulate closed-source,
correlation generation tool, and (4) a microbenchmarks-based                                                                                                                             optimized libraries, such as cuDNN [43], which are written in
conﬁguration tuner. Together, the four components reduce the                                                                                                                             hand-tuned SASS.
effort required to model contemporary and future GPUs.

A. Flexible frontend                                                                                                                                                                     B. Flexible and detailed performance model

   Our new frontend supports both vISA (PTX) execution-                                                                                                                                     To accurately model contemporary GPUs, we make exten-
driven and mISA (SASS) trace-driven simulation. In trace-                                                                                                                                sive modiﬁcations to GPGPU-Sim 3.x’s performance model.
driven mode, mISA traces are converted into an ISA-                                                                                                                                      This new performance model is released as part of GPGPU-
independent intermediate representation, that has a 1:1 cor-                                                                                                                             Sim 4.0 and can be used, independent of Accel-Sim, for PTX
respondence to the original SASS instructions. Table II de-                                                                                                                              simulation. Accel-Sim utilizes our GPGPU-Sim 4.0 perfor-
picts an example of how SASS instructions from different                                                                                                                                 mance model, interfacing with it through the ISA-independent
machine generations and the virtual instructions from PTX                                                                                                                                instruction representation.
are translated into the ISA-independent representation used by                                                                                                                              Figure 2 depicts an overview of the performance model.
the performance model. The intermediate format is integrated                                                                                                                             Streaming multiprocessors (SMs) are composed of multiple
into GPGPU-Sim 4.0 and represents the interface between the                                                                                                                              warp schedulers. Each warp scheduler has a dedicated register
frontend and the performance model. The format includes all                                                                                                                              ﬁle (RF) and its own execution units (EUs). A warp scheduler
the information necessary to perform timing simulation, in                                                                                                                               with its dedicated RF and EUs is called a sub-core [10],
particular: (1) the instruction’s control ﬂow (PC and active                                                                                                                             [55]. Sub-cores are isolated, sharing only the instruction cache
mask), (2) the instruction’s datapath information (registers                                                                                                                             and the memory subsystem. The memory coalescing unit is
accessed and execution unit) and (3) memory addresses for                                                                                                                                designed to support sub-warp coalescing on every consecutive
ld/st instructions. In execution-driven mode, the active mask                                                                                                                            group of N threads. Our performance model is capable of
and memory addresses are computed by emulating the PTX                                                                                                                                   simulating both separate and uniﬁed L1D cache and shared
instructions, whereas these values are embedded in the trace                                                                                                                             memory scratchpad [45]. Contemporary GPU architectures
when executing the machine ISA.                                                                                                                                                          make use of an adaptive cache mechanism, in which the device
   We generate the traces from NVIDIA GPUs using Accel-                                                                                                                                  driver transparently conﬁgures the shared memory capacity
Sim’s tracer tool that is built on top of NVbit [70]. We use                                                                                                                             and L1D capacity on a per-kernel basis. Using the adaptive
base+stride compression for the memory traces to keep the                                                                                                                                cache, if a kernel does not utilize shared memory, all the on-
trace sizes within an acceptable range. When a new SASS                                                                                                                                  chip storage will be assigned to the L1D cache [50].




                                                                                                                                                                                   475


      Authorized licensed use limited to: Purdue University. Downloaded on December 01,2021 at 17:51:44 UTC from IEEE Xplore. Restrictions apply.
 TABLE II: Example demonstrating how mISA instruction traces and vISA instructions translate into the ISA-independent
 intermediate representation used by the performance model. In traces, the mapping between opcode and execution unit is
 provided by the ISA def ﬁle in Figure 1.* indicates these values are computed using emulation.
                                                                                           ISA-independent representation
             Execution Mode        Example Instruction
                                                                       Active    Reg info:                       Memory
                                                                PC                              Exec. unit                              Memory scope
                                                                       mask      (dsts, srcs)                    addresses, width
             [Trace] Kepler mISA   LD.E R4, [R6]                0x78   0xFFFF    R4, R6         Memory unit      0x2000,..., 4          global, L1 cached
             [Trace] Volta mISA    LDG.E.U32.SYS R4, [R6]       0x32   0x00FF    R4, R6         Memory unit      0x4000,..., 4          global, L1 cached
             [Trace] Pascal mISA   IADD.X R7,R7,R0              0x12   0x00EF    R7, R0         INT unit         -                      -
             [Exec] PTX vISA       ld.global.cg.b32 r1, [r0];    *     *         R1, R0         Memory unit      *                      global, L2 cached



   With the slowing growth of Moore’s law, domain-speciﬁc                          #define ITERS 32768
processing pipelines continue to be introduced in GPUs (i.e.                       #include <HW_def.h> //L1_ARRAY_SIZE is defined in this header based on HW

Tensor cores in Volta [46]). To ensure extensibility with this                     __global__ void l1_lat(uint32_t *startClk, uint32_t *stopClk, uint64_t *data) {
trend, Accel-Sim supports adding simple execution units from                       // initialize the pointer-chasing array and warm up L1 cache
                                                                                   for (uint32_t i=0; i<(L1_ARRAY_SIZE-1); i++)
the conﬁguration ﬁle, without the need to update the codebase.                          data[i] = (uint64_t)(data + i + 1);
To add a new specialized unit, the user declares the new unit
in the conﬁguration ﬁle and maps the machine ISA op codes                          uint64_t * ptr0 = data, ptr1 = NULL;
                                                                                   // start timing
that use this unit in the ISA def ﬁle, as described in Figure 1.                   startClk = clock();
If execution-driven PTX support is required, then the user
                                                                                   // pointer-chasing for ITERS times                                  SASS
must also implement the code to emulate the new instruction’s
                                                                                   // use ca modifier to cache the load in L1                    LDG.E.64 R12, [R10];
functionality. To determine the latency and throughput of the                      for (uint32_t i=0; i<ITERS; ++i) {                            LDG.E.64 R12, [R12];
new unit, the user speciﬁes a sequence of instructions that                             asm volatile ("ld.global.ca.u64 ptr1, [ptr0];");         LDG.E.64 R14, [R12];
                                                                                        ptr0 = ptr1; //swap the register for the next load       LDG.E.64 R14, [R14];
can be measured by the microbenchmark tuning framework                             }                                                             LDG.E.64 R16, [R14];
(described in Section II-C). We follow this process to model                                                                                     LDG.E.64 R16, [R16];

Volta and Turing’s Tensor Cores.                                                   // stop timing
                                                                                   stopClk = clock();
   Our GPU cache model supports a throughput-oriented,                             }
banked, and sectored cache design [32], [62]. The cache is
                                                                                   l1_lat<<<1,1>>>(startClk , stopClk , data);
ﬂexible enough to model GPUs from Kepler through Turing.                           printf("L1 Latency = %12.4f cycles\n", (float)(stopClk-startClk) / ITERS);
We also model the CPU-GPU memory copy engine, since
all DRAM accesses go through the L2, including CPU-GPU                                             Fig. 3: L1 latency microbenchmark
memory copies [53]. To reduce unbalanced memory accesses
across L2 memory partitions, which we refer to as partition
camping [3], [33], we add advanced partition indexing that                       the tuner, as shown in Figure 1. The ﬁle is used by the
xors the L2 bank bits with randomly selected bits from the                       microbenchamrks to help discover non-public conﬁguration
page row bits using a Galois-based irreducible polynomial                        parameters. The def ﬁle enumerates a minimal amount of
(IPOLY) interleaving mechanism [56]. Partition camping is                        information (such as number of SMs, warp size, etc.) that can
a major problem in contemporary GPUs that have 2n memory                         be derived from publicly available documents [46].
partitions, like High Bandwidth Memory (HBM) [24] which                             In total, we have 38 microbenchmarks that span from
has 8 channels per stack [33], [51]. IPOLY hashing is guaran-                    L1/L2/shared memory latency and attained bandwidth, cache
teed to be conﬂict-free for all 2n strides, which are common in                  write policy, cache conﬁguration, access/sector granularity,
GPGPU applications, and also shows reasonable, deterministic                     number of cache banks, memory coalescing policy, cache
performance for other strides [56].                                              streaming behavior, execution unit latency/throughput and
   In the memory system, we model new advances in HBM                            DRAM latency/bandwidth for different data elements: ﬂoat,
and GDDR6 [24], [51]. This includes the dual-bus interface to                    double and 128-bit vector. To illustrate the general conﬁgura-
launch row and column commands simultaneously, increasing                        tion of the microbenchmarks, Figure 3 lists the code for our
bank parallelism [51], and detailed HBM timing. Further, we                      L1 latency microbenchmark that uses pointer chasing [34],
implement well-known memory optimization techniques such                         [60] to create data dependencies with minimal overhead. The
as advanced xor-based bank indexing and separate read/write                      microbenchmark is written such that the kernel’s execution
buffers, to reduce memory bank conﬂicts and read-write inter-                    time is dominated by the L1 latency. After execution, the
ference [8], [30], [66].                                                         tuner reads the microbenchmark’s output and generates a
                                                                                 conﬁguration ﬁle for the performance model.
C. Tuner and targeted microbenchmarks                                               For other parameters that cannot be directly determined
   Accel-Sim includes a microbenchmark suite to pinpoint                         by our microbenchmarks (such as warp scheduling, memory
latency, bandwidth and geometry changes to known hardware                        scheduling, the L2 cache interleaving granularity and the L2
structures from one generation to another. When new hardware                     cache hashing function), Accel-Sim simulates each possible
is released, the user provides a hardware def header ﬁle to                      combination of these four parameters on a set of memory



                                                                           476


      Authorized licensed use limited to: Purdue University. Downloaded on December 01,2021 at 17:51:44 UTC from IEEE Xplore. Restrictions apply.
bandwidth microbenchmarks (l1-bw, l2-bw, shd-bw and mem-                       TABLE III: Workloads used in our study. Table VIII lists the
bw). The combination with the highest average hardware                         hardware cycles for each workload.
correlation is chosen by the tuner.
                                                                                  Benchmark Suite   Workloads                              Trace Size [Compressed]
                                                                                  Rodinia 3.1 [9]   b+tree, backprob, bfs, hotspot,        302 GB [15 GB]
D. Correlator                                                                                       srad-v1, sc, nn, needle, dwt2d, lud,
                                                                                                    lavaMD, kmeans, myocyte
   An automated conﬁguration tuner does not capture more                          CUDA SDK [40]     sp, blk, vec-add, traspose, conv,      18 GB [1.2 GB]
drastic architectural changes in different generations. Manual                                      scan, sorting-net, walsh-transform,
                                                                                                    histo, mergesort
effort is required to model such changes. However, the mag-                       Parboil [65]      sad, sgemm, stencil, cutcp, mri-q,     250 GB [12 GB]
nitude of the effort can be lessened with quickly generated,                                        histo, spmv, bfs
                                                                                  Polybench [16]    2dconv, 3dconv, 2mm, 3mm, mvt,         743 GB [33 GB]
targeted information on inaccuracy. Accel-Sim’s correlation                                         atax, bicg, gesummv, gemm, syrk
tool automates the process of generating counter-by-counter                       Microbenchamrks   l1-lat, l1-bw, shd-lat, shd-bw,        3 GB [94 MB]
                                                                                                    l2-lat, l2-bw, mem-lat, mem-bw,
correlation data for different architectures. The tool generates                                    maxﬂops
graphs and data that serve as correlation guidance to pin-                        CUTLASS [47]      SGEMM with tensor cores                2.5 TB [125 GB]
                                                                                                    WMMA (10 different input) and
point workloads and metrics where the simulator is not well                                         SGEMM with normal ﬂoating
                                                                                                    point (10 different input)
correlated to hardware. Using insights from the correlation                       Deepbench [35]    GEMM bench (10 train, 10 infer-        2.6 TB [130 GB]
of various performance counters over different realistic work-                                      ence), CONV bench (10 train, 10
                                                                                                    inference), RNN bench (10 train,
loads and microbenchmarks, performance bugs or misrepre-                                            10 inference)
sentations in the simulator are identiﬁed and corrected.
                                                                               sum total is 140 workloads from the applications listed in
E. Simulation rate                                                             Table III. The applications cfd, heartwall, hotspot3D, huffman,
   Adding detail and ﬂexibility to a performance model often                   leukocyte, srad v2 from Rodinia, lbm and tpacf from Parboil,
comes at the expense of increased simulation time. Although                    corr, cover, fdtd2d and gram-shm from Polybench are omit-
Accel-Sim is not multithreaded, we take steps to improve                       ted since their trace sizes are prohibitively large. We leave
its speed. With our improvements, Accel-Sim in trace-driven                    developing trace compression techniques and gradual trace
mode is able to perform 12.5 kilo warp instructions per                        creation to support these workloads as future work. We note
second, a 4.3× simulation time improvement over GPGPU-                         that without traces, Accel-Sim is still able to execute these
Sim 3.x. Half of our speed improvement comes from the                          apps in execution-driven mode. The total disk size required
fact that trace-driven mode avoids functional execution. The                   for all the traces we simulate is 6.2 TB uncompressed (317
second half comes from a simulation optimization strategy                      GB compressed) for each card generation. Table III lists the
we call simulation-gating, which is a trade-off between event-                 trace size for all the benchmark suites. Generating all 6.2 TB
driven and cycle-driven simulation. GPU simulations involve                    worth of traces takes approximately 48 hours using one GPU.
thousands of in-ﬂight memory requests and hundreds of active                      All the workloads are compiled with CUDA 10, using the
threads. Thus, there will always be something to simulate each                 compute capability of their respective architecture (i.e. sm 70
cycle. Similar to GPGPU-Sim 3.x, the updated performance                       in the case of Volta). We run the workloads with the input
model is cycle-driven, ticking all the components every cycle.                 sizes provided by each benchmark suite. Since deep learning
However, we observe that the simulator ticks many empty                        performance is highly sensitive to input size, we run Deep-
components and spends a signiﬁcant amount of time doing                        bench with multiple inputs, 10 inputs for training and 10 inputs
non-useful work. To overcome this issue, we keep a status                      for inference. For the Volta and Turing cards, we execute two
state for each component (core, execution unit, cache, dram                    versions of the CUTLASS matrix-multiply apps, one that uses
channel), then the simulator only ticks active components                      tensor cores and one that uses 32-bit ﬂoating point operations.
every cycle and skips unnecessary code and loop iterations                     For CUTLASS, the input sizes from DeepBench’s matrix
when there is no useful work in the pipeline. Finally, in                      multiply kernels are used. Hardware counters are collected
trace-driven mode, the user can set kernel-based checkpointing                 using the nvprof [44] and nsight [49] command-line proﬁlers
to select the desired hotspot kernels to simulate and avoid                    from CUDA 10. We collect the timing data on a per-kernel
executing long running initialization kernels, which can further               basis by running the applications several times and averaging
improve simulation speed.                                                      the results.
                        III. W ORKLOADS                                               IV. M ODELING DIFFERENT GPU GENERATIONS
   To validate Accel-Sim and perform a detailed comparative                       To demonstrate Accel-Sim’s ﬂexibility, we model four dif-
analysis against prior work, we use a wide range of applica-                   ferent NVIDIA GPU generations (Kepler, Pascal, Volta and
tions from different domains and benchmark suites. With the                    Turing). First, we generate the traces for all the benchmarks
exception of a handful of applications with trace-size issues,                 using Accel-Sim’s tracing tool on each card1 . Second, we pro-
we run all the applications found in Rodinia 3.1 [9], the CUDA                 vide the ISA def and HW Def ﬁles for each card from publicly
SDK [40], Parboil [65], Polybench [16], CUTLASS [47],                          available documents [42], [46] to the Accel-Sim frontend and
our microbenchmark suite, and cutting-edge machine learning                      1 We use the Volta (sm 70) traces to simulate Turing (sm 75), as NVBit
workloads from the Deepbench benchmark suite [35]. The                         support for Turing is not expected until Summer 2020.




                                                                         477


      Authorized licensed use limited to: Purdue University. Downloaded on December 01,2021 at 17:51:44 UTC from IEEE Xplore. Restrictions apply.
 TABLE IV: Accel-Sim modeling properties across four different GPU generations. SPU: Single-Precision Floating Point Unit.
 DPU: Double-Precision Unit. SFU: Special Function Unit.
                                        Kepler TITAN [39]               Pascal TITAN X [41]               Volta QV100 [46]              Turing RTX 2060 [48]
               Machine ISA                     sm 35                            sm 62                            sm 70                          sm 75
                Core Model                 shared model                    sub core model                  sub core model                  sub core model
            Inst Dispatch/Issue              dual-issue                       dual-issue                     single-issue                    single-issue
              Execution units               SPUs, SFUs                   SPUs, SFUs, DPUs             SPUs, SFUs, Tensor Cores        SPUs, SFUs, Tensor Cores
                                    128B line, 1 bank , 96-way,          32B sector, 2 banks,        32B sector, adaptive, 4 banks,      32B sector, 4 banks,
             L1 Conﬁguration
                                       128B/cycle, 42 cycles         48-way, 64B/cycle, 80 cycles   256-way, 128B/cycle, 28 cycles        96-way, 28 cycles
                                       32B sector, 24 banks,            32B sector, 24 banks,           32B sector, 64 banks,           32B sector, 24 banks,
             L2 Conﬁguration
                                             190 cycles                       238 cycles              212 cycles, IPOLY hashing               226 cycles
           DRAM Conﬁguration                  GDDR5                            GDDR5                             HBM                           GDDR6



TABLE V: Accel-Sim cycle error and correlation factor across                              are allocated from the uniﬁed scratchpad + L1 (in Volta) or
four different GPU generations.                                                           the relatively limited 24kB L1 cache (in Pascal). By running
           Kepler [39]       Pascal [41]      Volta [46]           Turing [48]            a microbenchmark, similar to [37], we evaluate miss-status
            TITAN            TITAN X           QV100               RTX 2060
          MAE      Corr.    MAE      Corr.   MAE     Corr.        MAE      Corr.          holding register [68] (MSHR) throughput and ﬁnd that the
  PTX                                                                                     number of MSHR entries has increased substantially. Also,
  Exec    28%      0.99     53%      0.97    34%       0.98       32%      0.99
  SASS
                                                                                          we notice that, independent of L1 conﬁgured size, the MSHR
  Trace   25%      0.99     30%      0.97    15%       1.00       25%      0.99           throughput is the same, even if more of the on-chip SRAM
                                                                                          storage is devoted to shared memory.

tuner respectively, as illustrated in Section II. Third, we run                           Write-Aware Cache Design: Using Accel-Sim’s detailed
our microbenchmark suite and automated tuner on each card                                 correlation plots, our initial experiments found that hardware
to conﬁgure the performance model’s parameters for the card                               conserves memory bandwidth much more than expected when
in question. Fourth, using Accel-Sim’s correlation tool, we                               running write-intense GPU workloads. To understand the be-
generate a set of graphs for performance counters to validate                             haviour, we developed an L2 write policy microbenchmark to
and improve correlation accuracy. Table IV shows the machine                              conﬁrm that the L2 is write-back with a write-allocate policy.
ISA version and modeling parameters obtained using Accel-                                 Interestingly, we also observed additional behaviour on write
Sim’s tuner to model each GPU generation. These correlation                               misses. Historically, there are two different write allocation
results drive the development of our performance model and                                policies [27], fetch-on-write and write-validate. Using Accel-
enable us to uncover a number of interesting insights into                                Sim, we ﬁnd that the L2 cache in all four generations applies
contemporary hardware in different GPU generations. Three                                 a version of write-validate that handles the varying granularity
signiﬁcant aspects are:                                                                   of GPU read/write requests. L2 reads have a minimum gran-
                                                                                          ularity of 32B, but writes can be sub-32B. When a write to
Sub-Warp, Sectored Memory Coalescer: We ﬁnd that in                                       a single byte is received, it writes the byte to the sector, sets
Pascal, Volta and Turing, both the L1 and L2 caches have 32B                              a corresponding write bit in a byte-level write mask and sets
sectors [27], with 128B cache lines. This sub-line fetching                               the sector as valid and modiﬁed. When a sector read request
behavior has a signiﬁcant impact on irregular applications                                is received to a modiﬁed sector, it ﬁrst checks if the sector
running with the L1 cache enabled. To support an access gran-                             write-mask is complete, i.e. all the bytes have been written to
ularity of 32B into the cache, the memory coalescer operates                              and the line is fully readable. If so, it reads the sector, avoiding
across sub-warps of eight threads, as opposed to grouping 32                              a DRAM access. If the sector is not fully written, it generates
threads into a wide 128B access, as other contemporary GPU                                a read request for this sector and merges it with the modiﬁed
simulators do when the L1 cache is enabled. We speculate                                  bytes. Applying this write policy saves DRAM bandwidth that
that the caches have been sectored to: (1) mitigate the memory                            can be wasted by read-write interference at the DRAM when
over-fetching for uncoalesced accesses [57], and (2) reduce the                           sub-sector writes are received at the L2 cache.
cache tag overhead, especially the high power consumption as-                                To demonstrate Accel-Sim’s ability to model different ISAs
sociated with the large content-address memory [52] structures                            and hardware generations in both SASS and PTX simulation,
required for 4× more tag comparisons if a 32B line is used as                             Table V presents the Mean Absolute Error (MAE) and the
opposed to a 128B with 32B sectors. Our experiments suggest                               Karl Pearson Coefﬁcient of dispersion (Correl) for simulated
that Kepler does not support such a coalescing mechanism.                                 cycles across four different GPU cards. Correl is the ratio of
Accel-Sim’s ﬂexibility allows it to model either the legacy                               the standard deviation to the mean and indicates how closely
Kepler conﬁguration or the Pascal/Volta/Turing conﬁgurations                              the trends in both the simulator data and the hardware data
with reasonable accuracy.                                                                 match. Table V demonstrates that correlation is > 0.97 in all
                                                                                          instances and error is <= 30% for all SASS simulations. The
Improved L1 throughput: The L1 cache in Volta and Pascal                                  accuracy gained by executing the machine ISA over the virtual
is a streaming cache [10], [45], which allows many cache                                  ISA can be as much 2×, depending on the generation. The one
misses to be in ﬂight, regardless of how many cache lines                                 outlier with the greatest error is Pascal in PTX mode. In Pascal,



                                                                                    478


      Authorized licensed use limited to: Purdue University. Downloaded on December 01,2021 at 17:51:44 UTC from IEEE Xplore. Restrictions apply.
                TABLE VI: Volta GPU conﬁguration for GPGPU-Sim 3.x vs Accel-Sim. INT: Integer operation unit.
                            GPGPU-Sim 3.x                                              Accel-Sim (SASS + GPGPU-Sim 4.0)
    Front End               Execution-driven PTX 2.0                                   Trace-driven SASS 7.0
    #SMs                    80                                                         80
                            Warps per SM = 64, #Schedulers per SM = 4,
    SM Conﬁguration                                                                    +Subcore model, warp scheduler isolation
                            #Warps per Sched = 16, RF per SM = 64 KB
    #Exec Units             4 SPUs, 4 SFUs, 4 WMMA Tensors cores [55]                  + 4 DPUs, 4 INTs, 8 HMMA Tensor cores
    Memory Unit             Fermi coalescer (32 thread coalescer)                      sub-warp (8 thread) coalescer + Fair memory issue
    Shared Memory           Programmable-speciﬁed up to 96 KB                          Adaptive (up to 96 KB), latency = 20 cycles
                                                                                        +32B sector, adaptive cache (up to 128 KB),
    L1 cache                32KB, 128B line, 4 sets, write-evict
                                                                                       Streaming cache, banked, latency = 28 cycles
                            6 MB, 64 banks, 128B line, 32 sets, Write Back,
    L2 cache                                                                           +32B sector, subsector write policy, memory copy engine model, +pseudo-
                              Naive write policy, LRU, latency=100 cycles
                                                                                       random irreducible polynomial L2 hashing with IPOLY(67)
    Interconnection         80x64 crossbar, 32B ﬂit
    Memory Model            GDDR5 model, BW=850 GB/sec, latency=100ns                  HBM Model, dual-bus interface, Read/Write buffers, advanced bank
                                                                                       indexing




the L1D and texture cache are merged and L1D caching is                             TABLE VII: Error and correlation rates of GPGPU-Sim 3.x
disabled by default. Without the L1D as a bandwidth ﬁlter, L2                       versus Accel-Sim when modeling an NVIDIA Volta.
throughput is more important in Pascal. The poor instruction                                            Error                              Correlation
                                                                                         Statistic
scheduling in PTX results in a 53% error that is reduced to                                             GPGPU-          Accel-             GPGPU-      Accel-
                                                                                                        Sim 3.x          Sim               Sim 3.x      Sim
30% when SASS instruction scheduling is used.                                            L1 Reqs        NRMSE=3.04      NRMSE=0.00         0.99        1.00
                                                                                         L1 Hit         NRMSE=1.04      NRMSE=0.76         0.69        0.87
          V. A DETAILED CORRELATION ANALYSIS                                             Ratio
                                                                                         Occupancy      NRMSE=0.12      NRMSE=0.13         0.99        0.99
   In this section, we perform a quantitative analysis to                                L2 Reads       NRMSE=2.67      NRMSE=0.03         0.95        1.00
demonstrate how our new performance model can be used to                                 L2 Read        NRMSE=3.24      NRMSE=0.47         0.82        0.99
                                                                                         Hits
simulate an NVIDIA Quadro V100 [10]. We compare Accel-                                   DRAM           NRMSE=5.69      NRMSE=0.92         0.89        0.96
Sim against the state-of-the-art NVIDIA simulation model                                 Reads
from GPGPU-Sim 3.x [1], [5]. The GPGPU-sim 3.x model is                                  Instructions   MAE=27%         MAE=1%             0.87        1.00
                                                                                         Execution      MAE=94%         MAE=15%            0.87        1.00
a best-effort attempt to model the Volta card using GPGPU-                               Cycles
Sim 3.x without the modeling updates described in this paper.
Table VI details the conﬁguration parameters used to model
the architecture. The left column of the table details the conﬁg-                   and creates the appearance of massive error when small values
uration of GPGPU-sim 3.x, obtained by scaling resources. The                        deviate. As a result, we cannot use the MAE for counters
right column lists changes made possible using Accel-Sim and                        other than the number of cycles, instructions executed and
our updated GPGPU-Sim 4.0 performance model. For the sake                           Instructions Per Cycle (IPC), which will always be non-zero
of brevity, we refer to GPGPU-Sim 3.x as ‘GPGPU-Sim’ and                            values. For the remaining counters, we use the Normalized
Accel-Sim with GPGPU-Sim 4.0 as ‘Accel-Sim’. Note that                              Root Mean Squared Error (NRMSE). Table VII summarizes
both simulators are capable of executing NVIDIA’s Tensor                            the error and correlation co-efﬁcients for GPGPU-Sim versus
Core instructions. GPGPU-sim uses the PTX-level WMMA                                Accel-Sim, over a number of important performance metrics.
tensor core instruction. Based on the analysis from Raihan
et al. [55], Accel-Sim models the ﬁne-grained, SASS-level                           A. Overall system correlation
HMMA instruction. Since Accel-Sim is capable of both SASS-                             Figure 4 details a direct comparison of GPGPU-Sim to
trace and PTX-execution driven simulation, we refer to them                         Accel-Sim over a set of key simulation metrics. Figure 4a
as Accel-Sim and Accel-Sim [PTX Mode] respectively.                                 plots the ﬁnal number of cycles reported for each applica-
   In this section, we demonstrate the accuracy of our more                         tion. Rounded to 2 signiﬁcant digits, Accel-Sim has a 1.00
ﬂexible performance model and the effect of being able                              correlation with hardware, and a 15% mean absolute error.
to simulate SASS traces. The correlation ﬁgures presented                           In contrast, GPGPU-Sim has a correlation of 0.87 and 94%
throughout this section plot hardware results from the NVIDIA                       error. Generally, GPGPU-sim’s values are above the x=y
proﬁlers nvprof [44] and nsight-cli [49] on the x-axis and the                      line, meaning the simulator is over-estimating the number
simulation results on the y-axis. Depending on the statistic,                       of cycles for the workload. GPGPU-Sim is not modeling
there are up to 80 datapoints on each graph (80 applications,                       the performance enhancements made to the memory system,
without the Deepbench workloads). The blue x represents the                         which Accel-Sim does.
GPGPU-Sim result and the circles represent Accel-Sim. Each                             Accel-Sim’s increased accuracy can be attributed to two
plot also lists the Correl and error for the statistic. We use two                  factors: the machine ISA representation and the updated
different aggregation techniques for error. Intuitively, the Mean                   performance model. To understand the effect of the instruction
Absolute Error (MAE) makes the most sense since it provides                         set, Figure 4b plots the number of warp instructions executed.
a percentage error and is resistant to outliers. However, cal-                      Since GPGPU-Sim operates on PTX, the correlation is rela-
culating MAE is not possible if the reference counter is zero                       tively low and shows a 27% error. In contrast, Accel-Sim has a



                                                                              479


      Authorized licensed use limited to: Purdue University. Downloaded on December 01,2021 at 17:51:44 UTC from IEEE Xplore. Restrictions apply.
                              GPGPU-Sim 3.x [Correl=0.87 MAE=94%]                                                                          GPGPU-Sim 3.x [Correl=0.87 MAE=27%]                                                                     GPGPU-Sim 3.x [Correl=0.95 NRMSE=2.67]
                              Accel-Sim [Correl=1.0 MAE=15%]                                                                               Accel-Sim [Correl=1.0 MAE=1%]                                                                           Accel-Sim [Correl=1.0 NRMSE=0.03]

                                                                                                                                                                                                                                                               1B
                                                                                                                                                           5




                                                                                                                 Simulation Warp Instructions
                                             5
                                                                                                                                                           2
                                             2                                                                                                           1B                                                                                                100M




                                                                                                                                                                                                                                Simulation L2 Reads
                                        10M                                                                                                                5




           Simulation Cycles
                                             5                                                                                                             2
                                                                                                                                                                                                                                                           10M
                                                                                                                                                     100M
                                             2                                                                                                             5

                                            1M                                                                                                             2                                                                                                   1M
                                                                                                                                                     10M
                                             5
                                                                                                                                                           5

                                             2                                                                                                             2                                                                                               100k
                                                                                                                                                         1M
                                        100k
                                                                                                                                                           5
                                             5                                                                                                                                                                                                                 10k
                                                                                                                                                           2

                                             2                                                                                                       100k
                                                                                                                                                           5                                                                                               1000
                                         10k
[...]
   We thank our anonymous reviewers for feedback on early                           [16] S. Grauer-Gray, L. Xu, R. Searles, S. Ayalasomayajula, and J. Cavazos,
versions of this paper, David Nellans, Oreste Villa and the                              “Auto-tuning a High-Level Language Targeted to GPU Codes,” in
                                                                                         Innovative Parallel Computing (InPar), 2012, pp. 1–10.
NVBit [70] developers for early access to the tool and bug
                                                                                    [17] A. A. Gubran and T. M. Aamodt, “Emerald: Graphics Modeling for
ﬁxes that facilitated the creation of the Accel-Sim SASS                                 SoC Systems,” in ACM/IEEE 46th Annual International Symposium on
Tracer, and Akshay Jain and Syed Farooq for their help in the                            Computer Architecture (ISCA), 2019, pp. 169–182.
early phases of the project. We would also like to recognize                        [18] A. Gutierrez, B. M. Beckmann, A. Dutu, J. Gross, M. LeBeane, J. Kala-
                                                                                         matianos, O. Kayiran, M. Poremba, B. Potter, S. Puthoor, M. Sinclair,
all the researchers who have made contributions to GPGPU-                                M. Wyse, J. Yin, X. Zhang, A. Jain, and T. G. Rogers, “Lost in
Sim since the last major release. This work was supported, in                            Abstraction: Pitfalls of Analyzing GPUs at the Intermediate Language
part, by NSF CCF #1910924 and the Applications Driving                                   Level,” in IEEE International Symposium on High Performance Com-
                                                                                         puter Architecture (HPCA), 2018, pp. 608–619.
Architectures (ADA) Research Center, a JUMP Center co-                              [19] A. Gutierrez, J. Pusdesris, R. G. Dreslinski, T. Mudge, C. Sudanthi,
sponsored by SRC and DARPA.                                                              C. D. Emmons, M. Hayenga, and N. Paver, “Sources of Error in Full-
                                                                                         System Simulation,” in IEEE International Symposium on Performance
                             R EFERENCES                                                 Analysis of Systems and Software (ISPASS), 2014, pp. 13–22.
                                                                                    [20] S. Hong and H. Kim, “An Integrated GPU Power and Performance
 [1] T. M. Aamodt, W. W. Fung, I. Singh, A. El-Shaﬁey, J. Kwa, T. Hether-                Model,” in Proceedings of the 37th annual international symposium on
     ington, A. Gubran, A. Boktor, T. Rogers, and A. Bakhoda, “GPGPU-Sim                 computer architecture (ISCA), 2010, pp. 280–289.
     3. x manual,” http://gpgpu-sim.org/manual/index.php/Main Page, 2016.           [21] J.-C. Huang, J. H. Lee, H. Kim, and H.-H. S. Lee, “GPUMech:
 [2] A. Adileh, C. González-Alvarez, J. M. D. H. Ruiz, and L. Eeckhout,                 GPU Performance Modeling Technique based on Interval Analysis,” in
     “Racing to Hardware-Validated Simulation,” in IEEE International Sym-               Proceedings of the 47th Annual IEEE/ACM International Symposium on
     posium on Performance Analysis of Systems and Software (ISPASS),                    Microarchitecture (MICRO), 2014, pp. 268–279.
     2019, pp. 58–67.                                                               [22] A. Jain, M. Khairy, and T. G. Rogers, “A Quantitative Evaluation of
 [3] A. M. Aji, M. Daga, and W.-c. Feng, “Bounding the Effect of Partition               Contemporary GPU Simulation Methodology,” Proceedings of the ACM
     Camping in GPU Kernels,” in Proceedings of the 8th ACM International                on Measurement and Analysis of Computing Systems (SIGMETRICS),
     Conference on Computing Frontiers (CF), 2011, p. 27.                                vol. 2, no. 2, p. 35, 2018.
 [4] N. Ardalani, C. Lestourgeon, K. Sankaralingam, and X. Zhu, “Cross-             [23] JEDEC Standard, “GDDR5X,” JESD232A, 2016.
     Architecture Performance Prediction (XAPP) Using CPU Code to                   [24] ——, “High bandwidth memory (HBM) DRAM,” JESD235, 2020.
     Predict GPU Performance,” in Proceedings of the 48th International
                                                                                    [25] W. Jia, K. A. Shaw, and M. Martonosi, “MRPB: Memory Request Prior-
     Symposium on Microarchitecture (MICRO), 2015, pp. 725–737.
                                                                                         itization for Massively Parallel Processors,” in IEEE 20th International
 [5] A. Bakhoda, G. L. Yuan, W. W. Fung, H. Wong, and T. M. Aamodt,
                                                                                         Symposium on High Performance Computer Architecture (HPCA), 2014,
     “Analyzing CUDA Workloads Using a Detailed GPU Simulator,” in
                                                                                         pp. 272–283.
     IEEE International Symposium on Performance Analysis of Systems and
     Software (ISPASS), 2009, pp. 163–174.                                          [26] Z. Jia, M. Maggioni, B. Staiger, and D. P. Scarpazza, “Dissecting
                                                                                         the NVIDIA Volta GPU Architecture via Microbenchmarking,” arXiv
 [6] B. Beckmann and A. Gutierrez, “The AMD gem5 APU Simulator: Mod-
                                                                                         preprint arXiv:1804.06826, 2018.
     eling Heterogeneous Systems in gem5,” in Tutorial at the International
     Symposium on Microarchitecture (MICRO), 2015.                                  [27] N. P. Jouppi, “Cache Write Policies and Performance,” in 20th Annual
 [7] T. E. Carlson, W. Heirman, and L. Eeckhout, “Sniper: Exploring                      International Symposium on Computer Architecture (ISCA), 1993, pp.
     the Level of Abstraction for Scalable and Accurate Parallel Multi-                  191–201.
     Core Simulation,” in Proceedings of International Conference for High          [28] H. Kim, J. Lee, N. B. Lakshminarayana, J. Sim, J. Lim, and T. Pho,
     Performance Computing, Networking, Storage and Analysis (SC), 2011,                 “MacSim: A CPU-GPU Heterogeneous Simulation Framework User
     pp. 1–12.                                                                           Guide,” Technical Report, Georgia Institute of Technology, 2012.
 [8] N. Chatterjee, M. O’Connor, G. H. Loh, N. Jayasena, and R. Balasub-            [29] G. Koo, Y. Oh, W. W. Ro, and M. Annavaram, “Access Pattern-
     ramonian, “Managing DRAM Latency Divergence in Irregular GPGPU                      Aware Cache Management for Improving Data Utilization in GPU,” in
     Applications,” in Proceedings of the International Conference for High              Proceedings of the 44th Annual International Symposium on Computer
     Performance Computing, Networking, Storage and Analysis (SC), 2014,                 Architecture (ISCA), 2017, pp. 307–319.
     pp. 128–139.                                                                   [30] C. J. Lee, V. Narasiman, E. Ebrahimi, O. Mutlu, and Y. N. Patt,
 [9] S. Che, M. Boyer, J. Meng, D. Tarjan, J. W. Sheaffer, S.-H. Lee, and                “DRAM-Aware Last-Level Cache Writeback: Reducing Write-Caused
     K. Skadron, “Rodinia: A Benchmark Suite for Heterogeneous Com-                      Interference in Memory Systems,” Technical Report, The University of
     puting,” in Proceedings of IEEE international symposium on workload                 Texas at Austin, TR-HPS-2010-002, 2010.
     characterization (IISWC), 2009, pp. 44–54.                                     [31] J. Lew, D. A. Shah, S. Pati, S. Cattell, M. Zhang, A. Sandhupatla, C. Ng,
[10] J. Choquette, O. Giroux, and D. Foley, “Volta: Performance and Pro-                 N. Goli, M. D. Sinclair, T. G. Rogers, and T. M. Aamodt, “Analyzing
     grammability,” IEEE Micro 2018, vol. 38, no. 2, pp. 42–52.                          Machine Learning Workloads Using a Detailed GPU Simulator,” in




                                                                              485


       Authorized licensed use limited to: Purdue University. Downloaded on December 01,2021 at 17:51:44 UTC from IEEE Xplore. Restrictions apply.
     IEEE International Symposium on Performance Analysis of Systems and                [59] T. G. Rogers, M. O’Connor, and T. M. Aamodt, “Cache-Conscious
     Software (ISPASS), 2019, pp. 151–152.                                                   Wavefront Scheduling,” in Proceedings of the 45th Annual IEEE/ACM
[32] J. S. Liptay, “Structural Aspects of the System/360 Model 85, II: The                   International Symposium on Microarchitecture (MICRO), 2012, pp. 72–
     Cache,” IBM Systems Journal, vol. 7, no. 1, pp. 15–21, 1968.                            83.
[33] Y. Liu, X. Zhao, M. Jahre, Z. Wang, X. Wang, Y. Luo, and L. Eeckhout,              [60] R. H. Saavedra-Barrera, “CPU Performance Evaluation and Execution
     “Get Out of the Valley: Power-Efﬁcient Address Mapping for GPUs,”                       Time Prediction Using Narrow Spectrum Benchmarking,” Technical
     in ACM/IEEE 45th Annual International Symposium on Computer                             Report No. UCB/CSD-92-684, University of California, Berkeley, 1993.
     Architecture (ISCA), 2018, pp. 166–179.                                            [61] A. Sethia, D. A. Jamshidi, and S. Mahlke, “Mascar: Speeding up
[34] X. Mei and X. Chu, “Dissecting GPU Memory Hierarchy through                             GPU Warps by Reducing Memory Pitstops,” in IEEE 21st International
     Microbenchmarking,” IEEE Transactions on Parallel and Distributed                       Symposium on High Performance Computer Architecture (HPCA), 2015,
     Systems (TPDS), vol. 28, no. 1, pp. 72–86, 2017.                                        pp. 174–185.
[35] S. Narang and G. Diamos, “Baidu Deepbench,” https://svail.github.io/               [62] A. Seznec, “Decoupled Sectored Caches: conciliating low tag imple-
     DeepBench, 2016.                                                                        mentation cost and low miss ratio,” in Proceedings of the 21st Annual
[36] T. Nowatzki, J. Menon, C.-H. Ho, and K. Sankaralingam, “Architectural                   International Symposium on Computer Architecture (ISCA), 1994, pp.
     Simulators Considered Harmful,” IEEE Micro, vol. 35, no. 6, pp. 4–12,                   384–393.
     2015.                                                                              [63] M. D. Sinclair, J. Alsop, and S. V. Adve, “Chasing Away RAts:
[37] C. Nugteren, G.-J. van den Braak, H. Corporaal, and H. Bal, “A Detailed                 Semantics and Evaluation for Relaxed Atomics on Heterogeneous Sys-
     GPU Cache Model Based on Reuse Distance Theory,” in IEEE 20th                           tems,” in ACM/IEEE 44th Annual International Symposium on Computer
     International Symposium on High Performance Computer Architecture                       Architecture (ISCA), 2017, pp. 161–174.
     (HPCA), 2014, pp. 37–48.                                                           [64] M. Stephenson, S. K. S. Hari, Y. Lee, E. Ebrahimi, D. R. Johnson,
[38] NVIDIA, “Kepler Architecture,” https://www.nvidia.com/content/PDF/                      D. Nellans, M. O’Connor, and S. W. Keckler, “Flexible Software Pro-
     kepler/NVIDIA-Kepler-GK110-Architecture-Whitepaper.pdf, 2012.                           ﬁling of GPU Architectures,” in ACM/IEEE 42nd Annual International
[39] ——, “GeForce GTX Titan,” https://www.geforce.com/hardware/                              Symposium on Computer Architecture (ISCA), 2015, pp. 185–197.
     desktop-gpus/geforce-gtx-titan/speciﬁcations, 2013.                                [65] J. A. Stratton, C. Rodrigues, I.-J. Sung, N. Obeid, L.-W. Chang,
[40] ——, “CUDA C/C++ SDK Code Samples,” http://developer.nvidia.com/                         N. Anssari, G. D. Liu, and W. Hwu, “Parboil: A Revised Benchmark
     cuda-cc-sdk-code-samples, 2015.                                                         Suite for Scientiﬁc and Commercial Throughput Computing,” Center for
[41] ——, “NVIDIA TITAN X,” https://www.nvidia.com/en-us/geforce/                             Reliable and High-Performance Computing, vol. 127, 2012.
     products/10series/titan-x-pascal/, 2016.                                           [66] J. Stuecheli, D. Kaseridis, D. Daly, H. C. Hunter, and L. K. John,
[42] ——, “CUDA Binary Utilities,” https://docs.nvidia.com/cuda/                              “The Virtual Write Queue: Coordinating DRAM and Last-Level Cache
     cuda-binary-utilities/index.html, 2017.                                                 Policies,” in Proceedings of the 47th Annual International Symposium
[43] ——, “CuDNN Devloper Guide,” https://docs.nvidia.com/deeplearning/                       on Computer Architecture (ISCA), 2010, pp. 72–82.
     sdk/cudnn-developer-guide/index.html, 2017.                                        [67] Y. Sun, T. Baruah, S. A. Mojumder, S. Dong, X. Gong, S. Treadway,
[44] ——,        “Nvidia      Proﬁler      8.0,”   http://docs.nvidia.com/cuda/               Y. Bao, S. Hance, C. McCardwell, V. Zhao, H. Barclay, A. K. Ziabari,
     proﬁler-users-guide/index.html, 2017.                                                   Z. Chen, R. Ubal, J. L. Abelln, J. Kim, A. Joshi, and D. Kaeli, “MG-
[45] ——, “Volta Cache,” http://on-demand.gputechconf.com/gtc/2017/                           PUSim: Enabling Multi-GPU Performance Modeling and Optimization,”
     presentation/s7798-luke-durant-inside-volta.pdf, 2017.                                  in Proceedings of the 46th International Symposium on Computer
[46] ——, “Volta V100 White paper,” http://images.nvidia.com/content/                         Architecture (ISCA), 2019, pp. 197–209.
     volta-architecture/pdf/volta-architecture-whitepaper.pdf, 2017.                    [68] J. Tuck, L. Ceze, and J. Torrellas, “Scalable Cache Miss Handling for
[47] ——, “CUTLASS: CUDA template library for dense linear algebra at                         High Memory-Level Parallelism,” in Proceedings of the 39th Annual
     all levels and scales,” https://github.com/NVIDIA/cutlass, 2018.                        IEEE/ACM International Symposium on Microarchitecture (MICRO),
[48] ——, “GeForce RTX 2060,” https://www.nvidia.com/en-us/geforce/                           2006, pp. 409–422.
     graphics-cards/rtx-2060/, 2019.                                                    [69] R. Ubal, B. Jang, P. Mistry, D. Schaa, and D. Kaeli, “Multi2Sim: A
[49] ——, “NVIDIA Nsight CLI,” https://docs.nvidia.com/nsight-compute/                        Simulation Framework for CPU-GPU Computing,” in Proceedings of the
     NsightComputeCli/index.html, 2019.                                                      21st International Conference on Parallel Architectures and Compilation
[50] ——,         “Programming         Guide,”    https://docs.nvidia.com/cuda/               Techniques (PACT), 2012, pp. 335–344.
     cuda-c-programming-guide/index.html, 2019.                                         [70] O. Villa, M. Stephenson, D. Nellans, and S. W. Keckler, “NVBit: A
[51] M. O’Connor, “Highlights of the High-Bandwidth Memory (HBM)                             Dynamic Binary Instrumentation Framework for NVIDIA GPUs,” in
     Standard,” in Memory Forum Workshop, Co-located with the 41st                           Proceedings of the 52Nd Annual IEEE/ACM International Symposium
     International Symposium on Computer Architecture (ISCA), 2014.                          on Microarchitecture (MICRO), 2019, pp. 372–383.
[52] K. Pagiamtzis and A. Sheikholeslami, “A Low-Power Content-                         [71] X. Wang, K. Huang, A. Knoll, and X. Qian, “A Hybrid Framework
     Addressable Memory (CAM) Using Pipelined Hierarchical Search                            for Fast and Accurate GPU Performance Estimation through Source-
     Scheme,” IEEE Journal of Solid-State Circuits, vol. 39, no. 9, pp. 1512–                Level Analysis and Trace-Based Simulation,” in IEEE International
     1519, 2004.                                                                             Symposium on High Performance Computer Architecture (HPCA), 2019,
[53] Paulius        Micikevicius,        “Kepler      Architecture,”      http:              pp. 506–518.
     //on-demand.gputechconf.com/gtc/2013/presentations/                                [72] D. Wong, N. S. Kim, and M. Annavaram, “Approximating Warps
     S3466-Programming-Guidelines-GPU-Architecture.pdf, 2013.                                with Intra-warp Operand Value Similarity,” in 2016 IEEE International
[54] J. Power, J. Hestness, M. S. Orr, M. D. Hill, and D. A. Wood,                           Symposium on High Performance Computer Architecture (HPCA), 2016,
     “gem5-gpu: A heterogeneous CPU-GPU Simulator,” IEEE Computer                            pp. 176–187.
     Architecture Letters (CAL), vol. 14, no. 1, pp. 34–36, 2014.                       [73] H. Wong, M.-M. Papadopoulou, M. Sadooghi-Alvandi, and
[55] M. A. Raihan, N. Goli, and T. M. Aamodt, “Modeling Deep Learning                        A. Moshovos, “Demystifying GPU Microarchitecture through
     Accelerator Enabled GPUs,” in IEEE International Symposium on                           Microbenchmarking,” in IEEE International Symposium on Performance
     Performance Analysis of Systems and Software (ISPASS), 2019, pp. 79–                    Analysis of Systems & Software (ISPASS), 2010, pp. 235–246.
     92.                                                                                [74] G. Wu, J. L. Greathouse, A. Lyashevsky, N. Jayasena, and D. Chiou,
[56] B. R. Rau, “Pseudo-Randomly Interleaved Memory,” in Proceedings                         “GPGPU Performance and Power Estimation Using Machine Learning,”
     of the 18th Annual International Symposium on Computer Architecture                     in IEEE 21st International Symposium on High Performance Computer
     (ISCA), 1991, pp. 74–83.                                                                Architecture (HPCA), 2015, pp. 564–576.
[57] M. Rhu, M. Sullivan, J. Leng, and M. Erez, “A Locality-Aware Memory                [75] Y. Zhang and J. D. Owens, “A Quantitative Performance Analysis Model
     Hierarchy for Energy-Efcient GPU Architectures,” in Proceedings of the                  for GPU Architectures,” in IEEE 17th International Symposium on High
     46th Annual IEEE/ACM International Symposium on Microarchitecture                       Performance Computer Architecture (HPCA), 2011, pp. 382–393.
     (MICRO), 2013, pp. 86–98.                                                          [76] H. Zhu, M. Akrout, B. Zheng, A. Pelegris, A. Jayarajan, A. Phanishayee,
[58] S. Rixner, W. J. Dally, U. J. Kapasi, P. Mattson, and J. D. Owens,                      B. Schroeder, and G. Pekhimenko, “Benchmarking and Analyzing
     “Memory Access Scheduling,” in Proceedings of the 27th Annual                           Deep Neural Network Training,” in IEEE International Symposium on
     International Symposium on Computer Architecture (ISCA), 2000, pp.                      Workload Characterization (IISWC), 2018, pp. 88–100.
     128–138.




                                                                                  486


       Authorized licensed use limited to: Purdue University. Downloaded on December 01,2021 at 17:51:44 UTC from IEEE Xplore. Restrictions apply.
